Version 4
SHEET 1 1768 1004
WIRE 640 -192 400 -192
WIRE 672 -192 640 -192
WIRE 880 -192 672 -192
WIRE 912 -192 880 -192
WIRE 1168 -192 912 -192
WIRE 672 -144 672 -192
WIRE 880 -144 880 -192
WIRE 640 -96 640 -192
WIRE 672 -96 640 -96
WIRE 752 -96 720 -96
WIRE 832 -96 752 -96
WIRE 912 -96 912 -192
WIRE 912 -96 880 -96
WIRE 1168 -80 1168 -192
WIRE 1200 -80 1168 -80
WIRE 1168 -32 1168 -80
WIRE 672 -16 672 -48
WIRE 752 -16 752 -96
WIRE 752 -16 672 -16
WIRE 880 16 880 -48
WIRE 1056 16 880 16
WIRE 1120 16 1056 16
WIRE 1200 16 1200 -80
WIRE 1200 16 1168 16
WIRE 1056 64 1056 16
WIRE 672 128 672 -16
WIRE 880 128 880 16
WIRE 400 144 400 -192
WIRE 1168 160 1168 64
WIRE 1216 160 1168 160
WIRE 624 176 592 176
WIRE 816 176 672 176
WIRE 880 176 816 176
WIRE 960 176 928 176
WIRE 1056 192 1056 128
WIRE 1168 192 1168 160
WIRE 1168 192 1056 192
WIRE 672 240 672 224
WIRE 784 240 672 240
WIRE 880 240 880 224
WIRE 880 240 784 240
WIRE 400 272 400 224
WIRE 480 272 400 272
WIRE 400 320 400 272
WIRE 784 320 784 240
WIRE 1168 320 1168 192
WIRE 400 368 368 368
WIRE 480 368 480 272
WIRE 480 368 448 368
WIRE 688 368 480 368
WIRE 736 368 688 368
WIRE 816 368 816 176
WIRE 816 368 784 368
WIRE 1120 368 1088 368
WIRE 1200 368 1168 368
WIRE 688 448 688 368
WIRE 1088 448 1088 368
WIRE 1088 448 688 448
WIRE 368 496 368 368
WIRE 400 496 400 416
WIRE 400 496 368 496
WIRE 784 496 784 416
WIRE 784 496 400 496
WIRE 816 496 816 368
WIRE 816 496 784 496
WIRE 1168 496 1168 416
WIRE 1168 496 816 496
WIRE 1200 496 1200 368
WIRE 1200 496 1168 496
FLAG 592 176 -
IOPIN 592 176 BiDir
FLAG 960 176 +
IOPIN 960 176 BiDir
FLAG 1216 160 Out
IOPIN 1216 160 BiDir
FLAG 400 -192 VDD
IOPIN 400 -192 BiDir
FLAG 368 496 VSS
IOPIN 368 496 BiDir
SYMBOL cap 1040 64 R0
SYMATTR InstName Cc
SYMATTR Value 0.2p
SYMBOL nmosb 736 320 R0
WINDOW 0 63 4 Left 2
WINDOW 3 63 27 Left 2
SYMATTR InstName MBiasIn
SYMATTR Value n018
SYMATTR Value2 l=2u w=1588n ad=0.571p as=0.571p pd=3.896u ps=3.896u m=1
SYMBOL nmosb 1120 320 R0
WINDOW 0 63 4 Left 2
WINDOW 3 63 27 Left 2
SYMATTR InstName MBiasOut
SYMATTR Value n018
SYMATTR Value2 l=2u w=5.96u ad=2.145p as=2.145p pd=12.64u ps=12.64u m=1
SYMBOL nmosb 624 128 R0
WINDOW 0 63 4 Left 2
WINDOW 3 63 27 Left 2
SYMATTR InstName Min1
SYMATTR Value n018
SYMATTR Value2 l=2u w=794n ad=285f as=285f pd=2.308u ps=2.308u m=1
SYMBOL nmosb 928 128 M0
WINDOW 0 63 4 Left 2
WINDOW 3 63 27 Left 2
SYMATTR InstName Min2
SYMATTR Value n018
SYMATTR Value2 l=2u w=794n ad=285f as=285f pd=2.308u ps=2.308u m=1
SYMBOL pmosb 832 -144 R0
WINDOW 0 63 69 Left 2
WINDOW 3 63 92 Left 2
SYMATTR InstName Mcm2
SYMATTR Value p018
SYMATTR Value2 l=2u w=3.66u ad=1.32p as=1.32p pd=8.04u ps=8.04u m=1
SYMBOL pmosb 1120 -32 R0
WINDOW 0 63 69 Left 2
WINDOW 3 63 92 Left 2
SYMATTR InstName Mout
SYMATTR Value p018
SYMATTR Value2 l=2u w=27.448u ad=9.88p as=9.88p pd=55.6u ps=55.6u m=1
SYMBOL pmosb 720 -144 M0
WINDOW 0 63 69 Left 2
WINDOW 3 63 92 Left 2
SYMATTR InstName Mcm1
SYMATTR Value p018
SYMATTR Value2 l=2u w=3.66u ad=1.32p as=1.32p pd=8.04u ps=8.04u m=1
SYMBOL current 400 144 R0
WINDOW 123 0 0 Left 0
WINDOW 39 0 0 Left 0
SYMATTR InstName I1
SYMATTR Value 1µ
SYMBOL nmosb 448 320 M0
WINDOW 0 63 4 Left 1
WINDOW 3 63 27 Left 2
SYMATTR InstName M1
SYMATTR Value n018
SYMATTR Value2 l=2u w=840n ad=0.3p as=0.3p pd=2.4u ps=2.4u m=1
