Version 4
SHEET 1 1708 908
WIRE -1072 -752 -1168 -752
WIRE -944 -752 -1072 -752
WIRE -640 -752 -944 -752
WIRE -416 -752 -640 -752
WIRE -128 -752 -416 -752
WIRE 112 -752 -128 -752
WIRE -416 -720 -416 -752
WIRE -128 -720 -128 -752
WIRE -1168 -688 -1168 -752
WIRE 112 -624 112 -752
WIRE -944 -592 -944 -752
WIRE -416 -592 -416 -640
WIRE -16 -592 -416 -592
WIRE -1168 -576 -1168 -608
WIRE -16 -576 -16 -592
WIRE 16 -576 -16 -576
WIRE 400 -560 192 -560
WIRE 16 -544 -16 -544
WIRE -128 -528 -128 -640
WIRE -16 -528 -16 -544
WIRE -16 -528 -128 -528
WIRE -944 -480 -944 -512
WIRE -800 -480 -944 -480
WIRE -944 -448 -944 -480
WIRE -640 -448 -640 -752
WIRE -800 -400 -800 -480
WIRE -800 -400 -880 -400
WIRE -752 -400 -800 -400
WIRE -704 -400 -752 -400
WIRE -416 -368 -416 -592
WIRE -128 -368 -128 -528
WIRE -640 -320 -640 -352
WIRE -608 -320 -640 -320
WIRE -352 -320 -608 -320
WIRE -192 -320 -352 -320
WIRE 160 -320 -192 -320
WIRE 400 -320 400 -560
WIRE 400 -320 160 -320
WIRE -944 -304 -944 -352
WIRE -416 -208 -416 -272
WIRE -416 -112 -416 -128
WIRE -128 -112 -128 -272
WIRE -128 -112 -416 -112
WIRE -416 -96 -416 -112
WIRE -944 32 -944 -304
WIRE -416 32 -416 -16
WIRE -416 32 -944 32
WIRE -416 64 -416 32
FLAG -416 64 0
FLAG -1168 -576 0
FLAG -1072 -752 Vin
FLAG 160 -320 VBG1
FLAG 112 -496 0
FLAG -752 -400 Vb
FLAG -608 -320 Ve2
FLAG -944 -304 Ve1
SYMBOL res -400 -224 M0
SYMATTR InstName R3
SYMATTR Value 120k
SYMBOL npn -192 -368 R0
SYMATTR InstName Q3
SYMATTR Value N
SYMBOL npn -352 -368 M0
SYMATTR InstName Q4
SYMATTR Value N 10
SYMBOL res -400 -112 M0
SYMATTR InstName R4
SYMATTR Value 591.5k
SYMBOL res -400 -736 M0
SYMATTR InstName R1
SYMATTR Value 400k
SYMBOL res -112 -736 M0
WINDOW 3 36 68 Left 2
SYMATTR Value 400k
SYMATTR InstName R2
SYMBOL voltage -1168 -704 R0
WINDOW 123 24 72 Left 2
WINDOW 39 0 0 Left 0
WINDOW 3 24 44 Left 2
SYMATTR Value2 AC 1
SYMATTR Value 2
SYMATTR InstName V4
SYMBOL proiectSCIAA 112 -560 M180
SYMATTR InstName X2
SYMBOL current -944 -592 R0
WINDOW 123 0 0 Left 0
WINDOW 39 0 0 Left 0
SYMATTR InstName I1
SYMATTR Value 10n
SYMBOL npn -880 -448 M0
SYMATTR InstName Q1
SYMATTR Value N
SYMBOL npn -704 -448 R0
SYMATTR InstName Q2
SYMATTR Value N
TEXT 576 -416 Left 2 !;ac dec 1000 1 50Meg
TEXT 576 -560 Left 2 !.lib 180nmL7.lib
TEXT 576 -504 Left 2 !.op
TEXT 584 -192 Left 2 ;.step param Vdd 1.6 2 0.1
TEXT 584 -144 Left 2 ;.tran 0 100m 0 10u
TEXT 576 -640 Left 0 !.model N NPN\n.model P PNP
TEXT 576 -464 Left 2 !.dc temp -40 150 .1
TEXT 584 -736 Left 2 ;PWL(50u 0 51u 5 70u 5)
TEXT 584 -704 Left 2 ;{Vdd}
TEXT 576 -360 Left 2 ;.step param x 1 300 1
TEXT 584 -296 Left 2 ;.param R3 120k
TEXT 576 -328 Left 2 ;.param R4 591.5K
TEXT 584 -272 Left 2 ;.param tol 0.05
TEXT 584 -232 Left 2 ;.temp -40
