Version 4
SHEET 1 2844 1592
WIRE -528 -48 -544 -48
WIRE -416 -48 -448 -48
WIRE -320 -48 -336 -48
WIRE -128 -48 -240 -48
WIRE 304 -48 -48 -48
WIRE -1456 -16 -1456 -32
WIRE -880 32 -880 -48
WIRE -880 32 -912 32
WIRE -816 32 -816 -48
WIRE -752 32 -752 -48
WIRE -720 32 -752 32
WIRE -1456 80 -1456 64
WIRE -880 112 -912 112
WIRE -720 112 -752 112
WIRE -528 128 -528 -48
WIRE -432 128 -528 128
WIRE -416 128 -416 -48
WIRE -368 128 -416 128
WIRE -320 128 -320 -48
WIRE -304 128 -320 128
WIRE -880 160 -880 112
WIRE -816 160 -816 112
WIRE -752 160 -752 112
WIRE -432 160 -432 128
WIRE -368 160 -368 128
WIRE -304 160 -304 128
WIRE -240 160 -240 -48
WIRE -1456 176 -1456 160
WIRE -928 224 -1024 224
WIRE 160 256 16 256
WIRE -1456 272 -1456 256
WIRE 256 272 224 272
WIRE 304 272 304 -48
WIRE 304 272 256 272
WIRE -80 288 -176 288
WIRE 160 288 112 288
WIRE -80 304 -80 288
WIRE -928 352 -1040 352
WIRE 112 400 112 288
WIRE -752 464 -752 416
WIRE 112 496 112 480
WIRE -1040 512 -1040 352
WIRE -464 512 -464 416
WIRE 16 512 16 256
WIRE 16 512 -464 512
FLAG -1456 272 0
FLAG -1456 80 0
FLAG -1456 -32 +V
FLAG -1456 160 -V
FLAG -624 -48 0
FLAG 192 240 +V
FLAG 192 304 -V
FLAG 112 496 0
FLAG 256 272 out
FLAG -1040 512 0
FLAG -752 544 0
FLAG -1024 304 0
FLAG -80 384 0
FLAG -880 -48 0
FLAG -816 -48 0
FLAG -752 -48 0
DATAFLAG 304 112 ""
DATAFLAG -240 48 ""
DATAFLAG -320 48 ""
DATAFLAG -416 48 ""
DATAFLAG -528 32 ""
SYMBOL voltage -1456 -32 R0
WINDOW 123 0 0 Left 0
WINDOW 39 0 0 Left 0
SYMATTR InstName V1
SYMATTR Value 15
SYMBOL voltage -1456 160 R0
WINDOW 123 0 0 Left 0
WINDOW 39 0 0 Left 0
SYMATTR InstName V2
SYMATTR Value -15
SYMBOL OpAmps\\AD820 192 208 R0
SYMATTR InstName U
SYMBOL res -528 -64 R90
WINDOW 0 0 56 VBottom 2
WINDOW 3 32 56 VTop 2
SYMATTR InstName R5
SYMATTR Value 3.076k
SYMBOL voltage 112 384 R0
WINDOW 123 24 44 Left 2
WINDOW 39 0 0 Left 0
WINDOW 3 24 44 Left 2
SYMATTR Value SINE(0 415.2m 11.28k)
SYMATTR InstName V3
SYMBOL res -32 -64 R90
WINDOW 0 0 56 VBottom 2
WINDOW 3 32 56 VTop 2
SYMATTR InstName R1
SYMATTR Value 11.13k
SYMBOL res -224 -64 R90
WINDOW 0 0 56 VBottom 2
WINDOW 3 32 56 VTop 2
SYMATTR InstName R2
SYMATTR Value 1.28k
SYMBOL res -320 -64 R90
WINDOW 0 0 56 VBottom 2
WINDOW 3 32 56 VTop 2
SYMATTR InstName R3
SYMATTR Value 1k
SYMBOL res -432 -64 R90
WINDOW 0 0 56 VBottom 2
WINDOW 3 32 56 VTop 2
SYMATTR InstName R4
SYMATTR Value 0.79k
SYMBOL Switches\\ADG1608 -496 288 R90
SYMATTR InstName U1
SYMBOL voltage -752 448 R0
WINDOW 123 0 0 Left 0
WINDOW 39 0 0 Left 0
SYMATTR InstName V4
SYMATTR Value 5
SYMBOL voltage -80 288 R0
WINDOW 123 0 0 Left 0
WINDOW 39 0 0 Left 0
SYMATTR InstName V5
SYMATTR Value 5
SYMBOL voltage -1024 208 R0
WINDOW 123 0 0 Left 0
WINDOW 39 0 0 Left 0
SYMATTR InstName V6
SYMATTR Value -5
SYMBOL voltage -912 128 R180
WINDOW 0 24 96 Left 2
WINDOW 3 24 16 Left 2
WINDOW 123 0 0 Left 0
WINDOW 39 0 0 Left 0
SYMATTR InstName V7
SYMATTR Value 0
SYMBOL voltage -816 128 R180
WINDOW 0 24 96 Left 2
WINDOW 3 24 16 Left 2
WINDOW 123 0 0 Left 0
WINDOW 39 0 0 Left 0
SYMATTR InstName V8
SYMATTR Value 5
SYMBOL voltage -720 128 R180
WINDOW 0 24 96 Left 2
WINDOW 3 24 16 Left 2
WINDOW 123 0 0 Left 0
WINDOW 39 0 0 Left 0
SYMATTR InstName V9
SYMATTR Value 5
TEXT -1544 -328 Left 2 !.tran 0 530u 0 10n
TEXT -1544 -360 Left 2 ;.ac dec 100 .01 10Meg
TEXT -1544 -296 Left 2 !.FOUR 11.28khz 10 V(OUT)
TEXT -1544 -264 Left 2 !.OPTIONS numdgt=7
TEXT -1544 -232 Left 2 !.OPTIONS plotwinsize=0
TEXT -1536 -392 Left 2 ;.op
