Version 4
SHEET 1 1436 908
WIRE -1072 -752 -1168 -752
WIRE -944 -752 -1072 -752
WIRE -800 -752 -944 -752
WIRE -416 -752 -800 -752
WIRE -128 -752 -416 -752
WIRE 112 -752 -128 -752
WIRE -416 -720 -416 -752
WIRE -128 -720 -128 -752
WIRE -1168 -688 -1168 -752
WIRE -800 -672 -800 -752
WIRE 112 -624 112 -752
WIRE -416 -592 -416 -640
WIRE -16 -592 -416 -592
WIRE -1168 -576 -1168 -608
WIRE -16 -576 -16 -592
WIRE 16 -576 -16 -576
WIRE 336 -560 192 -560
WIRE 400 -560 336 -560
WIRE 16 -544 -16 -544
WIRE 880 -544 832 -544
WIRE 944 -544 880 -544
WIRE -128 -528 -128 -640
WIRE -16 -528 -16 -544
WIRE -16 -528 -128 -528
WIRE 656 -528 608 -528
WIRE 400 -496 400 -560
WIRE -944 -400 -944 -752
WIRE -800 -400 -800 -592
WIRE -800 -400 -848 -400
WIRE -800 -368 -800 -400
WIRE -416 -368 -416 -592
WIRE -128 -368 -128 -528
WIRE 608 -368 608 -528
WIRE 672 -368 608 -368
WIRE 880 -368 880 -544
WIRE 880 -368 752 -368
WIRE -848 -352 -848 -400
WIRE -1024 -336 -1072 -336
WIRE -736 -320 -848 -320
WIRE -352 -320 -736 -320
WIRE -192 -320 -352 -320
WIRE 144 -320 -192 -320
WIRE 400 -320 400 -416
WIRE 400 -320 144 -320
WIRE 608 -304 608 -368
WIRE 400 -256 400 -320
WIRE -416 -208 -416 -272
WIRE -1072 -112 -1072 -336
WIRE -800 -112 -800 -272
WIRE -800 -112 -1072 -112
WIRE -768 -112 -800 -112
WIRE -416 -112 -416 -128
WIRE -416 -112 -688 -112
WIRE -128 -112 -128 -272
WIRE -128 -112 -416 -112
WIRE 400 -112 400 -176
WIRE -416 -96 -416 -112
WIRE -416 64 -416 -16
FLAG -416 64 0
FLAG -1168 -576 0
FLAG -1072 -752 Vin
FLAG 144 -320 VBG1
FLAG 112 -496 0
FLAG -944 -272 0
FLAG 752 -480 Vin
FLAG 752 -608 0
FLAG 608 -224 0
FLAG 400 -112 0
FLAG 336 -560 Vref
SYMBOL res -400 -224 M0
SYMATTR InstName R1
SYMATTR Value 139.1k
SYMBOL npn -192 -368 R0
SYMATTR InstName Q2
SYMATTR Value N
SYMBOL npn -352 -368 M0
SYMATTR InstName Q1
SYMATTR Value N 10
SYMBOL res -400 -112 M0
SYMATTR InstName R2
SYMATTR Value 700k
SYMBOL res -400 -736 M0
SYMATTR InstName R3
SYMATTR Value 600k
SYMBOL res -112 -736 M0
WINDOW 3 36 68 Left 2
SYMATTR Value 600k
SYMATTR InstName R4
SYMBOL voltage -1168 -704 R0
WINDOW 123 24 44 Left 2
WINDOW 39 0 0 Left 0
SYMATTR InstName V4
SYMATTR Value 2
SYMBOL proiectSCIAA 112 -560 M180
SYMATTR InstName X2
SYMBOL proiectSCIAA -944 -336 R180
SYMATTR InstName X3
SYMBOL res -672 -128 R90
WINDOW 0 0 56 VBottom 2
WINDOW 3 32 56 VTop 2
SYMATTR InstName Rc1
SYMATTR Value 350k
SYMBOL npn -736 -368 M0
SYMATTR InstName Qc1
SYMATTR Value N
SYMBOL res -784 -576 R180
WINDOW 0 36 76 Left 2
WINDOW 3 36 40 Left 2
SYMATTR InstName Rc2
SYMATTR Value 600k
SYMBOL proiectSCIAA 752 -544 R0
SYMATTR InstName X4
SYMBOL res 768 -384 R90
WINDOW 0 0 56 VBottom 2
WINDOW 3 32 56 VTop 2
SYMATTR InstName R5
SYMATTR Value 8.1k
SYMBOL res 592 -320 R0
SYMATTR InstName R6
SYMATTR Value 100k
SYMBOL res 416 -400 R180
WINDOW 0 36 76 Left 2
WINDOW 3 36 40 Left 2
SYMATTR InstName R7
SYMATTR Value 81k
SYMBOL res 384 -272 R0
SYMATTR InstName R8
SYMATTR Value 1Meg
TEXT 832 -976 Left 2 ;.ac dec 1000 1 50Meg
TEXT 832 -1008 Left 2 !.lib 180nmL7.lib
TEXT 832 -952 Left 2 ;.op
TEXT 832 -928 Left 2 ;.step param Vdd 1.6 2 0.1
TEXT 832 -1048 Left 2 ;.tran 0 100m 0 10u
TEXT 832 -1088 Left 0 !.model N NPN\n.model P PNP
TEXT 832 -896 Left 2 !.dc temp -40 150 .1
TEXT 824 -1152 Left 2 ;PWL(50u 0 51u 5 70u 5)
TEXT 824 -1120 Left 2 ;{Vdd}
